ccopy_reg
_reconstructor
p1
(ctethne.classes.paper
Paper
p2
c__builtin__
object
p3
NtRp4
(dp5
S'publisherCity'
p6
VROCKVILLE
p7
sS'reprintAddress'
p8
VBachmair, A (reprint author), Max Planck Inst Plant Breeding Res, Dept Plant Dev Biol, D-50829 Cologne, Germany.
p9
sS'WC'
p10
VPlant Sciences
p11
sS'GA'
p12
V414DI
p13
sS'FX'
p14
(lp15
VThis work was supported by the Max Planck Society, by the German
p16
aVResearch Foundation (grant no. SFB 635 to G. C. and grant nos.
p17
aVBA1158/3-1 and SPP1365 to A. B.), by the Austrian Science Foundation
p18
aV(grant no. P 21215-B12 to A. B.), and by predoctoral fellowships from
p19
aVthe International Max Planck Research School to R. B. and R. H.
p20
asS'abstract'
p21
VThe higher plant Arabidopsis (Arabidopsis thaliana) has eight genes potentially coding for small ubiquitin-related modifier (SUMO) proteins. However, two well-expressed isoforms differ from fungal and animal consensus in a conserved glutamine (Gln) residue situated four residues from the carboxyl terminus. We tested deviations in this position in the background of SUMO1, the isoform with the highest expression level, and found that changes do not prevent conjugation to substrate proteins in vivo. Replacement of this conserved Gln by alanine resulted in a protein that was less readily removed from a substrate by SUMO protease EARLY IN SHORT DAYS4 in an in vitro reaction and apparently led to higher levels of SUMO conjugates when expressed in vivo. We used the SUMO1 variant with the Gln-to-alanine substitution, as well as SUMO3 and SUMO5 (which carry methionine and leucine, respectively, at this position), to enrich in vivo substrates. Identification of the most abundant proteins contained in these fractions indicated that they are involved in DNA-related, or in RNA-dependent, processes, such as regulation of chromatin structure, splicing, or translation. The majority of the identified bona fide substrates contain predicted sumoylation sites. A subset of the proteins was expressed in Escherichia coli and could be sumoylated in vitro.
p22
sS'pageEnd'
p23
I1540
sS'date'
p24
I2009
sS'documentType'
p25
VArticle
p26
sS'subject'
p27
VPlant Sciences
p28
sS'isoSource'
p29
VPlant Physiol.
p30
sS'timesCited'
p31
(lp32
I28
aVZ9 29
p33
asS'funding'
p34
(lp35
(VMax Planck Society
Ntp36
a(VGerman Research Foundation
VSFB 635, BA1158/3-1, SPP1365
tp37
a(VAustrian Science Foundation
VP 21215-B12
tp38
a(VInternational Max Planck Research School
Ntp39
asS'PT'
p40
VJ
sS'title'
p41
VSubstrates Related To Chromatin And To Rna-Dependent Processes Are Modified By Arabidopsis Sumo Isoforms That Differ In A Conserved Residue With Influence On Desumoylation
p42
sS'ISSN'
p43
(lp44
V0032-0889
p45
aVJ9 PLANT PHYSIOL
p46
asS'authors_full'
p47
(lp48
(VBUDHIRAJA
VRUCHIKA
tp49
a(VHERMKES
VREBECCA
tp50
a(VMUELLER
VSTEFAN
tp51
a(VSCHMIDT
VJUERGEN
tp52
a(VCOLBY
VTHOMAS
tp53
a(VPANIGRAHI
VKISHORE
tp54
a(VCOUPLAND
VGEORGE
tp55
a(VBACHMAIR
VANDREAS
tp56
asS'PG'
p57
I12
sS'PD'
p58
VMAR
p59
sS'pageStart'
p60
I1529
sS'issue'
p61
I3
sS'journal'
p62
VPLANT PHYSIOLOGY
p63
sS'volume'
p64
V149
p65
sS'doi'
p66
V10.1104/pp.108.135053
p67
sS'emailAddress'
p68
Vandreas.bachmair@univie.ac.at
p69
sS'authorAddress'
p70
(lp71
V[Budhiraja, Ruchika; Hermkes, Rebecca; Panigrahi, Kishore; Coupland, George; Bachmair, Andreas] Max Planck Inst Plant Breeding Res, Dept Plant Dev Biol, D-50829 Cologne, Germany.
p72
aV[Schmidt, Juergen; Colby, Thomas] Max Planck Inst Plant Breeding Res, Mass Spectrometry Grp, D-50829 Cologne, Germany.
p73
aV[Mueller, Stefan] Univ Cologne, Inst Biochem, D-50931 Cologne, Germany.
p74
aV[Bachmair, Andreas] Univ Vienna, Dept Biochem, Max F Perutz Labs, A-1030 Vienna, Austria.
p75
asS'publisherAddress'
p76
V15501 MONONA DRIVE, ROCKVILLE, MD 20855 USA
p77
sS'ER'
p78
V
sS'publisher'
p79
VAMER SOC PLANT BIOLOGISTS
p80
sS'authorKeywords'
p81
(lp82
VEND RULE PATHWAY
p83
aVUBIQUITIN-LIKE PROTEINS
p84
aVSACCHAROMYCES-CEREVISIAE
p85
aVSALICYLIC-ACID
p86
aVE3 LIGASE
p87
aVGENETIC-ANALYSIS
p88
aVSUMOYLATION
p89
aVPROTEASES
p90
aVSPECIFICITY
p91
aVRESPONSES
p92
asS'language'
p93
VEnglish
p94
sS'wosid'
p95
VWOS:000263843700025
p96
sS'citationCount'
p97
I48
sS'authors_init'
p98
(lp99
(VBUDHIRAJA
VR
tp100
a(VHERMKES
VR
tp101
a(VMULLER
VS
tp102
a(VSCHMIDT
VR
tp103
a(VCOLBY
VT
tp104
a(VPANIGRAHI
VK
tp105
a(VCOUPLAND
VG
tp106
a(VBACHMAIR
VA
tp107
asS'citedReferences'
p108
(lp109
g1
(g2
g3
NtRp110
(dp111
g66
Nsg62
VTHESIS U COLOGNE COL
p112
sg64
Nsg98
(lp113
(VBUDHIRAJA
VR
tp114
asg24
I2005
sg60
Nsbag1
(g2
g3
NtRp115
(dp116
g66
V10.1105/tpc.106.049981
p117
sg62
VPLANT CELL
p118
sg64
V19
p119
sg98
(lp120
(VCATALA
VR
tp121
asg24
I2007
sg60
VLANT
p122
sbag1
(g2
g3
NtRp123
(dp124
g66
V10.1074/jbc.M608730200
p125
sg62
VJ BIOL CHEM
p126
sg64
V282
p127
sg98
(lp128
(VCHOSED
VR
tp129
asg24
I2007
sg60
V6773
p130
sbag1
(g2
g3
NtRp131
(dp132
g66
V10.1042/BJ20060426
p133
sg62
VBIOCHEM J
p134
sg64
V398
p135
sg98
(lp136
(VCHOSED
VR
tp137
asg24
I2006
sg60
V521
p138
sbag1
(g2
g3
NtRp139
(dp140
g66
V10.1104/pp.106.085415
p141
sg62
VPLANT PHYSIOL
p142
sg64
V142
p143
sg98
(lp144
(VCOLBY
VT
tp145
asg24
I2006
sg60
VLANT
p146
sbag1
(g2
g3
NtRp147
(dp148
g66
V10.1105/tpc.108.058669
p149
sg62
VPLANT CELL
p150
sg64
V20
p151
sg98
(lp152
(VCONTI
VL
tp153
asg24
I2008
sg60
VLANT
p154
sbag1
(g2
g3
NtRp155
(dp156
g66
V10.1016/j.bbamcr.2004.09.021
p157
sg62
VBBA
p158
sg64
V1695
p159
sg98
(lp160
(VDOHMEN
VR J
tp161
asg24
I2004
sg60
V113
p162
sbag1
(g2
g3
NtRp163
(dp164
g66
V10.1146/annurev.biophys.36.040306.132820
p165
sg62
VANNU REV BIOPH BIOM
p166
sg64
V36
p167
sg98
(lp168
(VDYE
VB T
tp169
asg24
I2007
sg60
V131
p170
sbag1
(g2
g3
NtRp171
(dp172
g66
V10.1074/jbc.M708176200
p173
sg62
VJ BIOL CHEM
p174
sg64
V283
p175
sg98
(lp176
(VGARCIA-DOMINGUEZ
VM
tp177
asg24
I2008
sg60
V21469
p178
sbag1
(g2
g3
NtRp179
(dp180
g66
V10.1016/j.febslet.2007.06.005
p181
sg62
VFEBS LETT
p182
sg64
V581
p183
sg98
(lp184
(VGARZON
VM
tp185
asg24
I2007
sg60
V3189
p186
sbag1
(g2
g3
NtRp187
(dp188
g66
V10.1038/nrm2293
p189
sg62
VNAT REV MOL CELL BIO
p190
sg64
V8
sg98
(lp191
(VGEISS-FRIEDLANDER
VR
tp192
asg24
I2007
sg60
V947
p193
sbag1
(g2
g3
NtRp194
(dp195
g66
Nsg62
VJ BIOL CHEM
p196
sg64
V280
p197
sg98
(lp198
(VHANNICH
VJ T
tp199
asg24
I2005
sg60
V4102
p200
sbag1
(g2
g3
NtRp201
(dp202
g66
V10.1016/j.tcb.2007.08.002
p203
sg62
VTRENDS CELL BIOL
p204
sg64
V17
p205
sg98
(lp206
(VHAY
VR T
tp207
asg24
I2007
sg60
V370
p208
sbag1
(g2
g3
NtRp209
(dp210
g66
V10.1074/jbc.M512757200
p211
sg62
VJ BIOL CHEM
p212
sg64
V281
p213
sg98
(lp214
(VHECKER
VC M
tp215
asg24
I2006
sg60
V16117
p216
sbag1
(g2
g3
NtRp217
(dp218
g66
V10.1046/j.1365-2958.2003.03730.x
p219
sg62
VMOL MICROBIOL
p220
sg64
V50
p221
sg98
(lp222
(VHOTSON
VA
tp223
asg24
I2003
sg60
V377
p224
sbag1
(g2
g3
NtRp225
(dp226
g66
V10.1111/j.1365-313X.2007.03359.x
p227
sg62
VPLANT J
p228
sg64
V53
p229
sg98
(lp230
(VJIN
VJ B
tp231
asg24
I2008
sg60
VLANT
p232
sbag1
(g2
g3
NtRp233
(dp234
g66
V10.1146/annurev.biochem.73.011303.074118
p235
sg62
VANNU REV BIOCHEM
p236
sg64
V73
p237
sg98
(lp238
(VJOHNSON
VE S
tp239
asg24
I2004
sg60
V355
p240
sbag1
(g2
g3
NtRp241
(dp242
g66
V10.1146/annurev.cellbio.22.010605.093503
p243
sg62
VANNU REV CELL DEV BI
p244
sg64
V22
p245
sg98
(lp246
(VKERSCHER
VO
tp247
asg24
I2006
sg60
V159
p248
sbag1
(g2
g3
NtRp249
(dp250
g66
V10.1074/jbc.M209694200
p251
sg62
VJ BIOL CHEM
p252
sg64
V278
p253
sg98
(lp254
(VKUREPA
VJ
tp255
asg24
I2003
sg60
V6862
p256
sbag1
(g2
g3
NtRp257
(dp258
g66
V10.1111/j.1365-313X.2006.02947.x
p259
sg62
VPLANT J
p260
sg64
V49
p261
sg98
(lp262
(VLEE
VJ
tp263
asg24
I2007
sg60
VLANT
p264
sbag1
(g2
g3
NtRp265
(dp266
g66
V10.1073/pnas.0402889101
p267
sg62
VP NATL ACAD SCI USA
p268
sg64
V101
p269
sg98
(lp270
(VLI
VT W
tp271
asg24
I2004
sg60
V8551
p272
sbag1
(g2
g3
NtRp273
(dp274
g66
Nsg62
VPLANT CELL
p275
sg64
V15
p276
sg98
(lp277
(VLOIS
VL M
tp278
asg24
I2003
sg60
VLANT
p279
sbag1
(g2
g3
NtRp280
(dp281
g66
Nsg62
VCURR OPIN PLANT BIOL
p282
sg64
V10
p283
sg98
(lp284
(VMIURA
VK
tp285
asg24
I2007
sg60
V1
sbag1
(g2
g3
NtRp286
(dp287
g66
V10.1073/pnas.050078102
p288
sg62
VP NATL ACAD SCI USA
p289
sg64
V102
p290
sg98
(lp291
(VMIURA
VK
tp292
asg24
I2005
sg60
V7760
p293
sbag1
(g2
g3
NtRp294
(dp295
g66
V10.1105/tpc.106.048397
p296
sg62
VPLANT CELL
p297
sg64
V19
p298
sg98
(lp299
(VMIURA
VK
tp300
asg24
I2007
sg60
VLANT
p301
sbag1
(g2
g3
NtRp302
(dp303
g66
V10.1016/S1097-2765(00)80326-3
p304
sg62
VMOL CELL
p305
sg64
V5
sg98
(lp306
(VMOSSESSOVA
VE
tp307
asg24
I2000
sg60
V865
p308
sbag1
(g2
g3
NtRp309
(dp310
g66
V10.1016/j.tibs.2007.05.002
p311
sg62
VTRENDS BIOCHEM SCI
p312
sg64
V32
p313
sg98
(lp314
(VMUKHOPADHYAY
VD
tp315
asg24
I2007
sg60
V286
p316
sbag1
(g2
g3
NtRp317
(dp318
g66
V10.1105/tpc.015487
p319
sg62
VPLANT CELL
p320
sg64
V15
p321
sg98
(lp322
(VMURTAS
VG
tp323
asg24
I2003
sg60
VLANT
p324
sbag1
(g2
g3
NtRp325
(dp326
g66
V10.1007/s00425-004-1370-y
p327
sg62
VPLANTA
p328
sg64
V220
p329
sg98
(lp330
(VNOVATCHKOVA
VM
tp331
asg24
I2004
sg60
VLANTA
p332
sbag1
(g2
g3
NtRp333
(dp334
g66
V10.1016/j.bbrc.2005.09.090
p335
sg62
VBIOCHEM BIOPH RES CO
p336
sg64
V337
p337
sg98
(lp338
(VOWERBACH
VD
tp339
asg24
I2005
sg60
V517
p340
sbag1
(g2
g3
NtRp341
(dp342
g66
V10.1074/jbc.M407950200
p343
sg62
VJ BIOL CHEM
p344
sg64
V279
p345
sg98
(lp346
(VPANSE
VV G
tp347
asg24
I2004
sg60
V41346
p348
sbag1
(g2
g3
NtRp349
(dp350
g66
V10.1094/MPMI.2004.17.6.633
p351
sg62
VMOL PLANT MICROBE IN
p352
sg64
V17
p353
sg98
(lp354
(VRODEN
VJ
tp355
asg24
I2004
sg60
V633
p356
sbag1
(g2
g3
NtRp357
(dp358
g66
V10.1104/pp.107.102285
p359
sg62
VPLANT PHYSIOL
p360
sg64
V145
p361
sg98
(lp362
(VSARACCO
VS A
tp363
asg24
I2007
sg60
VLANT
p364
sbag1
(g2
g3
NtRp365
(dp366
g66
V10.1007/s00299-002-0493-5
p367
sg62
VPLANT CELL REP
p368
sg64
V21
p369
sg98
(lp370
(VSCHLOGELHOFER
VP
tp371
asg24
I2002
sg60
VLANT
p372
sbag1
(g2
g3
NtRp373
(dp374
g66
V10.1126/science.1071006
p375
sg62
VSCIENCE
p376
sg64
V296
p377
sg98
(lp378
(VSEKI
VM
tp379
asg24
I2002
sg60
V141
p380
sbag1
(g2
g3
NtRp381
(dp382
g66
V10.1021/ac950914h
p383
sg62
VANAL CHEM
p384
sg64
V68
p385
sg98
(lp386
(VSHEVCHENKO
VA
tp387
asg24
I1996
sg60
V850
p388
sbag1
(g2
g3
NtRp389
(dp390
g66
V10.1104/pp.103.029272
p391
sg62
VPLANT PHYSIOL
p392
sg64
V133
p393
sg98
(lp394
(VSTARY
VS
tp395
asg24
I2003
sg60
VLANT
p396
sbag1
(g2
g3
NtRp397
(dp398
g66
V10.1038/ncb1716
p399
sg62
VNAT CELL BIOL
p400
sg64
V10
p401
sg98
(lp402
(VTATHAM
VM H
tp403
asg24
I2008
sg60
V538
p404
sbag1
(g2
g3
NtRp405
(dp406
g66
V10.1080/10409230600648736
p407
sg62
VCRIT REV BIOCHEM MOL
p408
sg64
V41
p409
sg98
(lp410
(VTHOMAS
VM C
tp411
asg24
I2006
sg60
V105
p412
sbag1
(g2
g3
NtRp413
(dp414
g66
V10.1074/jbc.M706505200
p415
sg62
VJ BIOL CHEM
p416
sg64
V282
p417
sg98
(lp418
(VUZUNOVA
VK
tp419
asg24
I2007
sg60
V34167
p420
sbag1
(g2
g3
NtRp421
(dp422
g66
V10.1074/jbc.M409203200
p423
sg62
VJ BIOL CHEM
p424
sg64
V279
p425
sg98
(lp426
(VWOHLSCHLEGEL
VJ A
tp427
asg24
I2004
sg60
V45662
p428
sbag1
(g2
g3
NtRp429
(dp430
g66
V10.1126/science.1088305
p431
sg62
VSCIENCE
p432
sg64
V302
p433
sg98
(lp434
(VYAMADA
VK
tp435
asg24
I2003
sg60
V842
p436
sbag1
(g2
g3
NtRp437
(dp438
g66
V10.1016/0092-8674(80)90489-4
p439
sg62
VCELL
p440
sg64
V21
p441
sg98
(lp442
(VYATES
VJ L
tp443
asg24
I1980
sg60
V517
p444
sbag1
(g2
g3
NtRp445
(dp446
g66
V10.1104/pp.106.088831
p447
sg62
VPLANT PHYSIOL
p448
sg64
V142
p449
sg98
(lp450
(VYOO
VC Y
tp451
asg24
I2006
sg60
VLANT
p452
sbag1
(g2
g3
NtRp453
(dp454
g66
V10.1074/jbc.M401541200
p455
sg62
VJ BIOL CHEM
p456
sg64
V279
p457
sg98
(lp458
(VZHAO
VY M
tp459
asg24
I2004
sg60
V20999
p460
sbag1
(g2
g3
NtRp461
(dp462
g66
V10.1016/j.febslet.2005.04.076
p463
sg62
VFEBS LETT
p464
sg64
V579
p465
sg98
(lp466
(VZHOU
VF F
tp467
asg24
I2005
sg60
V3369
p468
sbag1
(g2
g3
NtRp469
(dp470
g66
V10.1074/jbc.M404173200
p471
sg62
VJ BIOL CHEM
p472
sg64
V279
p473
sg98
(lp474
(VZHOU
VW D
tp475
asg24
I2004
sg60
V32262
p476
sbag1
(g2
g3
NtRp477
(dp478
g66
V10.1046/j.1365-313x.2000.00868.x
p479
sg62
VPLANT J
p480
sg64
V24
p481
sg98
(lp482
(VZUO
VJ R
tp483
asg24
I2000
sg60
VLANT
p484
sbasb.